
  Mrv2311 04242407473D          

 31 33  0  0  0  0            999 V2000
   -2.0298    1.1762    1.3019 C   0  0  2  0  0  0  0  0  0  0  0  0
   -1.8809    2.4260    2.2624 C   0  0  0  0  0  0  0  0  0  0  0  0
   -1.3094    3.7252    1.6219 C   0  0  0  0  0  0  0  0  0  0  0  0
   -1.9955    4.1113    0.3499 N   0  0  1  0  0  0  0  0  0  0  0  0
   -1.8890    2.9862   -0.6290 C   0  0  0  0  0  0  0  0  0  0  0  0
   -2.5786    1.6976   -0.0991 C   0  0  0  0  0  0  0  0  0  0  0  0
   -2.5662   -0.5795    3.1328 C   0  0  0  0  0  0  0  0  0  0  0  0
   -2.9101    0.2027    2.0097 N   0  0  0  0  0  0  0  0  0  0  0  0
   -3.4707   -1.2059    3.7449 O   0  0  0  0  0  0  0  0  0  0  0  0
   -4.2072    0.0361    1.5595 C   0  0  0  0  0  0  0  0  0  0  0  0
   -5.2595    0.7847    2.1327 C   0  0  0  0  0  0  0  0  0  0  0  0
   -6.5780    0.6496    1.6621 C   0  0  0  0  0  0  0  0  0  0  0  0
   -6.8965   -0.2335    0.6144 C   0  0  0  0  0  0  0  0  0  0  0  0
   -5.8259   -1.0165    0.0529 C   0  0  0  0  0  0  0  0  0  0  0  0
   -4.4687   -0.8891    0.5223 C   0  0  0  0  0  0  0  0  0  0  0  0
   -1.0641   -1.6868    4.9310 C   0  0  0  0  0  0  0  0  0  0  0  0
   -1.1893   -0.7963    3.6689 C   0  0  0  0  0  0  0  0  0  0  0  0
   -0.7358    0.5054    0.9486 C   0  0  0  0  0  0  0  0  0  0  0  0
    0.3781    0.9876    1.2650 O   0  0  0  0  0  0  0  0  0  0  0  0
   -0.7942   -0.6833    0.2702 O   0  0  0  0  0  0  0  0  0  0  0  0
    0.3118   -1.4897   -0.1402 C   0  0  0  0  0  0  0  0  0  0  0  0
   -3.3924    4.6538    0.4823 C   0  0  0  0  0  0  0  0  0  0  0  0
   -3.5117    6.0835    1.0762 C   0  0  0  0  0  0  0  0  0  0  0  0
   -4.9459    6.4796    1.2002 C   0  0  0  0  0  0  0  0  0  0  0  0
   -5.5349    7.4377    0.3425 C   0  0  0  0  0  0  0  0  0  0  0  0
   -6.9179    7.7004    0.3999 C   0  0  0  0  0  0  0  0  0  0  0  0
   -7.7459    7.0180    1.3206 C   0  0  0  0  0  0  0  0  0  0  0  0
   -7.1467    6.1076    2.2186 C   0  0  0  0  0  0  0  0  0  0  0  0
   -5.7659    5.8518    2.1662 C   0  0  0  0  0  0  0  0  0  0  0  0
   -9.2195    7.2218    1.3352 C   0  0  0  0  0  0  0  0  0  0  0  0
   -9.9472    6.1219    0.5307 C   0  0  0  0  0  0  0  0  0  0  0  0
 16 17  1  0  0  0  0
 17  7  1  0  0  0  0
  7  8  1  0  0  0  0
  8 10  1  0  0  0  0
 10 11  2  0  0  0  0
 11 12  1  0  0  0  0
 12 13  2  0  0  0  0
 13 14  1  0  0  0  0
 14 15  2  0  0  0  0
  8  1  1  0  0  0  0
  1 18  1  0  0  0  0
 18 20  1  0  0  0  0
 20 21  1  0  0  0  0
 18 19  2  0  0  0  0
  1  2  1  0  0  0  0
  2  3  1  0  0  0  0
  3  4  1  0  0  0  0
  4 22  1  0  0  0  0
 22 23  1  0  0  0  0
 23 24  1  0  0  0  0
 24 25  2  0  0  0  0
 25 26  1  0  0  0  0
 26 27  2  0  0  0  0
 27 28  1  0  0  0  0
 28 29  2  0  0  0  0
  4  5  1  0  0  0  0
  5  6  1  0  0  0  0
  7  9  2  0  0  0  0
 15 10  1  0  0  0  0
  6  1  1  0  0  0  0
 29 24  1  0  0  0  0
 27 30  1  0  0  0  0
 30 31  1  0  0  0  0
M  END
$$$$
